<?xml version="1.0" encoding="iso-8859-1"?>

<!-- generated on 02/09/12 15:07:20 by SUMO netconvert Version 0.13.1
<?xml version="1.0" encoding="iso-8859-1"?>

<configuration xmlns:xsi="http://www.w3.org/2001/XMLSchema-instance" xsi:noNamespaceSchemaLocation="http://sumo.sf.net/xsd/netconvertConfiguration.xsd">

    <input>
        <node-files value="D:\Users\ranjingjiye\src\sumo-0.13.1\examples\mine\difSpeed\difSpeed.nod.xml"/>
        <edge-files value="D:\Users\ranjingjiye\src\sumo-0.13.1\examples\mine\difSpeed\difSpeed.edg.xml"/>
        <type-files value="D:\Users\ranjingjiye\src\sumo-0.13.1\examples\mine\difSpeed\difSpeed.typ.xml"/>
    </input>

    <output>
        <output-file value="D:\Users\ranjingjiye\src\sumo-0.13.1\examples\mine\difSpeed\difSpeed.net.xml"/>
    </output>

    <unregulated_nodes>
        <keep-nodes-unregulated value="true"/>
    </unregulated_nodes>

    <processing>
        <offset.disable-normalization value="true"/>
    </processing>

    <report>
        <verbose value="true"/>
    </report>

</configuration>
-->

<net version="0.13" xmlns:xsi="http://www.w3.org/2001/XMLSchema-instance" xsi:noNamespaceSchemaLocation="http://sumo.sf.net/xsd/net_file.xsd">

    <location netOffset="0.00,0.00" convBoundary="0.00,15.00,2501.00,15.00" origBoundary="0.00,15.00,2501.00,15.00" projParameter="!"/>

    <edge id=":2_0" function="internal">
        <lane id=":2_0_0" index="0" speed="70.00" length="0.10" shape="1500.00,6.75 1500.00,6.75"/>
    </edge>
    <edge id=":2_1" function="internal">
        <lane id=":2_1_0" index="0" speed="70.00" length="0.10" shape="1500.00,10.05 1500.00,10.05"/>
    </edge>
    <edge id=":2_2" function="internal">
        <lane id=":2_2_0" index="0" speed="70.00" length="0.10" shape="1500.00,13.35 1500.00,13.35"/>
    </edge>
    <edge id=":3_0" function="internal">
        <lane id=":3_0_0" index="0" speed="70.00" length="0.10" shape="2500.00,6.75 2500.00,6.75"/>
    </edge>
    <edge id=":3_1" function="internal">
        <lane id=":3_1_0" index="0" speed="70.00" length="0.10" shape="2500.00,10.05 2500.00,10.05"/>
    </edge>
    <edge id=":3_2" function="internal">
        <lane id=":3_2_0" index="0" speed="70.00" length="0.10" shape="2500.00,13.35 2500.00,13.35"/>
    </edge>

    <edge id="1to2" from="1" to="2" priority="3" type="a">
        <lane id="1to2_0" index="0" speed="70.00" length="1500.00" shape="0.00,6.75 1500.00,6.75"/>
        <lane id="1to2_1" index="1" speed="70.00" length="1500.00" shape="0.00,10.05 1500.00,10.05"/>
        <lane id="1to2_2" index="2" speed="70.00" length="1500.00" shape="0.00,13.35 1500.00,13.35"/>
    </edge>
    <edge id="2to3" from="2" to="3" priority="3" type="a">
        <lane id="2to3_0" index="0" speed="70.00" length="1000.00" shape="1500.00,6.75 2500.00,6.75"/>
        <lane id="2to3_1" index="1" speed="70.00" length="1000.00" shape="1500.00,10.05 2500.00,10.05"/>
        <lane id="2to3_2" index="2" speed="70.00" length="1000.00" shape="1500.00,13.35 2500.00,13.35"/>
    </edge>
    <edge id="out" from="3" to="4" priority="3" type="a">
        <lane id="out_0" index="0" speed="70.00" length="1.00" shape="2500.00,6.75 2501.00,6.75"/>
        <lane id="out_1" index="1" speed="70.00" length="1.00" shape="2500.00,10.05 2501.00,10.05"/>
        <lane id="out_2" index="2" speed="70.00" length="1.00" shape="2500.00,13.35 2501.00,13.35"/>
    </edge>

    <junction id="1" type="unregulated" x="0.00" y="15.00" incLanes="" intLanes="" shape="0.00,14.95 0.00,5.15">
    </junction>
    <junction id="2" type="unregulated" x="1500.00" y="15.00" incLanes="1to2_0 1to2_1 1to2_2" intLanes=":2_0_0 :2_1_0 :2_2_0" shape="1500.00,14.95 1500.00,5.15 1500.00,14.95">
    </junction>
    <junction id="3" type="unregulated" x="2500.00" y="15.00" incLanes="2to3_0 2to3_1 2to3_2" intLanes=":3_0_0 :3_1_0 :3_2_0" shape="2500.00,14.95 2500.00,5.15 2500.00,14.95">
    </junction>
    <junction id="4" type="unregulated" x="2501.00" y="15.00" incLanes="out_0 out_1 out_2" intLanes="" shape="2501.00,5.15 2501.00,14.95">
    </junction>

    <connection from="1to2" to="2to3" fromLane="0" toLane="0" via=":2_0_0" dir="s" state="M"/>
    <connection from="1to2" to="2to3" fromLane="1" toLane="1" via=":2_1_0" dir="s" state="M"/>
    <connection from="1to2" to="2to3" fromLane="2" toLane="2" via=":2_2_0" dir="s" state="M"/>
    <connection from="2to3" to="out" fromLane="0" toLane="0" via=":3_0_0" dir="s" state="M"/>
    <connection from="2to3" to="out" fromLane="1" toLane="1" via=":3_1_0" dir="s" state="M"/>
    <connection from="2to3" to="out" fromLane="2" toLane="2" via=":3_2_0" dir="s" state="M"/>

    <connection from=":2_0" to="2to3" fromLane="0" toLane="0" dir="s" state="M"/>
    <connection from=":2_1" to="2to3" fromLane="0" toLane="1" dir="s" state="M"/>
    <connection from=":2_2" to="2to3" fromLane="0" toLane="2" dir="s" state="M"/>
    <connection from=":3_0" to="out" fromLane="0" toLane="0" dir="s" state="M"/>
    <connection from=":3_1" to="out" fromLane="0" toLane="1" dir="s" state="M"/>
    <connection from=":3_2" to="out" fromLane="0" toLane="2" dir="s" state="M"/>

</net>
