<additional>
    <busStop id="busstop1" lane="1/3to2/3_0" startPos="300" endPos="320" lines="100 120 "/>
    <busStop id="busstop2" lane="3/2to3/1_0" startPos="250" endPos="270" lines="100 130"/>
    <busStop id="busstop3" lane="2/0to1/0_0" startPos="210" endPos="230" lines="100 120"/>
    <busStop id="busstop4" lane="0/1to0/2_0" startPos="280" endPos="300" lines="100 130"/>
    <busStop id="busstop5" lane="2/2to2/1_0" startPos="290" endPos="310" lines="120"/>
    <busStop id="busstop6" lane="1/1to1/2_0" startPos="280" endPos="300" lines="120"/>
    <busStop id="busstop7" lane="1/2to2/2_0" startPos="250" endPos="270" lines="130"/>
    <busStop id="busstop8" lane="2/1to1/1_0" startPos="230" endPos="250" lines="130"/>


    <vType id="BUS" accel="2.6" decel="4.5" sigma="0.5" length="12" minGap="3" maxSpeed="70" color="1,1,0" guiShape="bus/city"/>

  <vehicle id="1_0" type="BUS" depart="0" color="1,1,0">
        <route edges="0/3to1/3 1/3to2/3 2/3to3/3 3/3to3/2 3/2to3/1 3/1to3/0 3/0to2/0 2/0to1/0 1/0to0/0 0/0to0/1 0/1to0/2 0/2to0/3 0/3to1/3"/>
        <stop busStop="busstop1" duration="20"/>
        <stop busStop="busstop2" duration="20"/>
        <stop busStop="busstop3" duration="20"/>
        <stop busStop="busstop4" duration="20"/>
    </vehicle>

<vehicle id="1_1" type="BUS" depart="300" color="1,1,0">
        <route edges="0/3to1/3 1/3to2/3 2/3to3/3 3/3to3/2 3/2to3/1 3/1to3/0 3/0to2/0 2/0to1/0 1/0to0/0 0/0to0/1 0/1to0/2 0/2to0/3 0/3to1/3"/>
        <stop busStop="busstop1" duration="20"/>
        <stop busStop="busstop2" duration="20"/>
        <stop busStop="busstop3" duration="20"/>
        <stop busStop="busstop4" duration="20"/>
    </vehicle>

<vehicle id="1_2" type="BUS" depart="900" color="1,1,0">
        <route edges="0/3to1/3 1/3to2/3 2/3to3/3 3/3to3/2 3/2to3/1 3/1to3/0 3/0to2/0 2/0to1/0 1/0to0/0 0/0to0/1 0/1to0/2 0/2to0/3 0/3to1/3"/>
        <stop busStop="busstop1" duration="20"/>
        <stop busStop="busstop2" duration="20"/>
        <stop busStop="busstop3" duration="20"/>
        <stop busStop="busstop4" duration="20"/>
    </vehicle>


<vehicle id="1_3" type="BUS" depart="1200" color="1,1,0">
        <route edges="0/3to1/3 1/3to2/3 2/3to3/3 3/3to3/2 3/2to3/1 3/1to3/0 3/0to2/0 2/0to1/0 1/0to0/0 0/0to0/1 0/1to0/2 0/2to0/3 0/3to1/3"/>
        <stop busStop="busstop1" duration="20"/>
        <stop busStop="busstop2" duration="20"/>
        <stop busStop="busstop3" duration="20"/>
        <stop busStop="busstop4" duration="20"/>
    </vehicle>


<vehicle id="1_4" type="BUS" depart="1500" color="1,1,0">
        <route edges="0/3to1/3 1/3to2/3 2/3to3/3 3/3to3/2 3/2to3/1 3/1to3/0 3/0to2/0 2/0to1/0 1/0to0/0 0/0to0/1 0/1to0/2 0/2to0/3 0/3to1/3"/>
        <stop busStop="busstop1" duration="20"/>
        <stop busStop="busstop2" duration="20"/>
        <stop busStop="busstop3" duration="20"/>
        <stop busStop="busstop4" duration="20"/>
    </vehicle>


<vehicle id="1_5" type="BUS" depart="1800" color="1,1,0">
        <route edges="0/3to1/3 1/3to2/3 2/3to3/3 3/3to3/2 3/2to3/1 3/1to3/0 3/0to2/0 2/0to1/0 1/0to0/0 0/0to0/1 0/1to0/2 0/2to0/3 0/3to1/3"/>
        <stop busStop="busstop1" duration="20"/>
        <stop busStop="busstop2" duration="20"/>
        <stop busStop="busstop3" duration="20"/>
        <stop busStop="busstop4" duration="20"/>
    </vehicle>



<vehicle id="1_6" type="BUS" depart="2100" color="1,1,0">
        <route edges="0/3to1/3 1/3to2/3 2/3to3/3 3/3to3/2 3/2to3/1 3/1to3/0 3/0to2/0 2/0to1/0 1/0to0/0 0/0to0/1 0/1to0/2 0/2to0/3 0/3to1/3"/>
        <stop busStop="busstop1" duration="20"/>
        <stop busStop="busstop2" duration="20"/>
        <stop busStop="busstop3" duration="20"/>
        <stop busStop="busstop4" duration="20"/>
    </vehicle>


<vehicle id="1_7" type="BUS" depart="2400" color="1,1,0">
        <route edges="0/3to1/3 1/3to2/3 2/3to3/3 3/3to3/2 3/2to3/1 3/1to3/0 3/0to2/0 2/0to1/0 1/0to0/0 0/0to0/1 0/1to0/2 0/2to0/3 0/3to1/3"/>
        <stop busStop="busstop1" duration="20"/>
        <stop busStop="busstop2" duration="20"/>
        <stop busStop="busstop3" duration="20"/>
        <stop busStop="busstop4" duration="20"/>
    </vehicle>


<vehicle id="1_8" type="BUS" depart="2700" color="1,1,0">
        <route edges="0/3to1/3 1/3to2/3 2/3to3/3 3/3to3/2 3/2to3/1 3/1to3/0 3/0to2/0 2/0to1/0 1/0to0/0 0/0to0/1 0/1to0/2 0/2to0/3 0/3to1/3"/>
        <stop busStop="busstop1" duration="20"/>
        <stop busStop="busstop2" duration="20"/>
        <stop busStop="busstop3" duration="20"/>
        <stop busStop="busstop4" duration="20"/>
    </vehicle>


<vehicle id="1_9" type="BUS" depart="3000" color="1,1,0">
        <route edges="0/3to1/3 1/3to2/3 2/3to3/3 3/3to3/2 3/2to3/1 3/1to3/0 3/0to2/0 2/0to1/0 1/0to0/0 0/0to0/1 0/1to0/2 0/2to0/3 0/3to1/3"/>
        <stop busStop="busstop1" duration="20"/>
        <stop busStop="busstop2" duration="20"/>
        <stop busStop="busstop3" duration="20"/>
        <stop busStop="busstop4" duration="20"/>
    </vehicle>

<vehicle id="1_10" type="BUS" depart="3300" color="1,1,0">
        <route edges="0/3to1/3 1/3to2/3 2/3to3/3 3/3to3/2 3/2to3/1 3/1to3/0 3/0to2/0 2/0to1/0 1/0to0/0 0/0to0/1 0/1to0/2 0/2to0/3 0/3to1/3"/>
        <stop busStop="busstop1" duration="20"/>
        <stop busStop="busstop2" duration="20"/>
        <stop busStop="busstop3" duration="20"/>
        <stop busStop="busstop4" duration="20"/>
    </vehicle>



   <vehicle id="2_0" type="BUS" depart="0" color="1,1,0">
        <route edges="1/2to1/3 1/3to2/3 2/3to2/2 2/2to2/1 2/1to2/0 2/0to1/0 1/0to1/1 1/1to1/2 1/2to1/3"/>
        <stop busStop="busstop1" duration="20"/>
        <stop busStop="busstop5" duration="20"/>
        <stop busStop="busstop3" duration="20"/>
        <stop busStop="busstop6" duration="20"/>
    </vehicle>


 <vehicle id="2_1" type="BUS" depart="300" color="1,1,0">
        <route edges="1/2to1/3 1/3to2/3 2/3to2/2 2/2to2/1 2/1to2/0 2/0to1/0 1/0to1/1 1/1to1/2 1/2to1/3"/>
        <stop busStop="busstop1" duration="20"/>
        <stop busStop="busstop5" duration="20"/>
        <stop busStop="busstop3" duration="20"/>
        <stop busStop="busstop6" duration="20"/>
    </vehicle>

 <vehicle id="2_2" type="BUS" depart="600" color="1,1,0">
        <route edges="1/2to1/3 1/3to2/3 2/3to2/2 2/2to2/1 2/1to2/0 2/0to1/0 1/0to1/1 1/1to1/2 1/2to1/3"/>
        <stop busStop="busstop1" duration="20"/>
        <stop busStop="busstop5" duration="20"/>
        <stop busStop="busstop3" duration="20"/>
        <stop busStop="busstop6" duration="20"/>
    </vehicle>

 <vehicle id="2_3" type="BUS" depart="900" color="1,1,0">
        <route edges="1/2to1/3 1/3to2/3 2/3to2/2 2/2to2/1 2/1to2/0 2/0to1/0 1/0to1/1 1/1to1/2 1/2to1/3"/>
        <stop busStop="busstop1" duration="20"/>
        <stop busStop="busstop5" duration="20"/>
        <stop busStop="busstop3" duration="20"/>
        <stop busStop="busstop6" duration="20"/>
    </vehicle>
 <vehicle id="2_4" type="BUS" depart="1200" color="1,1,0">
        <route edges="1/2to1/3 1/3to2/3 2/3to2/2 2/2to2/1 2/1to2/0 2/0to1/0 1/0to1/1 1/1to1/2 1/2to1/3"/>
        <stop busStop="busstop1" duration="20"/>
        <stop busStop="busstop5" duration="20"/>
        <stop busStop="busstop3" duration="20"/>
        <stop busStop="busstop6" duration="20"/>
    </vehicle>


 <vehicle id="2_5" type="BUS" depart="1500" color="1,1,0">
        <route edges="1/2to1/3 1/3to2/3 2/3to2/2 2/2to2/1 2/1to2/0 2/0to1/0 1/0to1/1 1/1to1/2 1/2to1/3"/>
        <stop busStop="busstop1" duration="20"/>
        <stop busStop="busstop5" duration="20"/>
        <stop busStop="busstop3" duration="20"/>
        <stop busStop="busstop6" duration="20"/>
    </vehicle>
 <vehicle id="2_6" type="BUS" depart="1800" color="1,1,0">
        <route edges="1/2to1/3 1/3to2/3 2/3to2/2 2/2to2/1 2/1to2/0 2/0to1/0 1/0to1/1 1/1to1/2 1/2to1/3"/>
        <stop busStop="busstop1" duration="20"/>
        <stop busStop="busstop5" duration="20"/>
        <stop busStop="busstop3" duration="20"/>
        <stop busStop="busstop6" duration="20"/>
    </vehicle>



 <vehicle id="2_7" type="BUS" depart="2100" color="1,1,0">
        <route edges="1/2to1/3 1/3to2/3 2/3to2/2 2/2to2/1 2/1to2/0 2/0to1/0 1/0to1/1 1/1to1/2 1/2to1/3"/>
        <stop busStop="busstop1" duration="20"/>
        <stop busStop="busstop5" duration="20"/>
        <stop busStop="busstop3" duration="20"/>
        <stop busStop="busstop6" duration="20"/>
    </vehicle>

 <vehicle id="2_8" type="BUS" depart="2400" color="1,1,0">
        <route edges="1/2to1/3 1/3to2/3 2/3to2/2 2/2to2/1 2/1to2/0 2/0to1/0 1/0to1/1 1/1to1/2 1/2to1/3"/>
        <stop busStop="busstop1" duration="20"/>
        <stop busStop="busstop5" duration="20"/>
        <stop busStop="busstop3" duration="20"/>
        <stop busStop="busstop6" duration="20"/>
    </vehicle>

 <vehicle id="2_9" type="BUS" depart="2700" color="1,1,0">
        <route edges="1/2to1/3 1/3to2/3 2/3to2/2 2/2to2/1 2/1to2/0 2/0to1/0 1/0to1/1 1/1to1/2 1/2to1/3"/>
        <stop busStop="busstop1" duration="20"/>
        <stop busStop="busstop5" duration="20"/>
        <stop busStop="busstop3" duration="20"/>
        <stop busStop="busstop6" duration="20"/>
    </vehicle>


 <vehicle id="2_10" type="BUS" depart="3000" color="1,1,0">
        <route edges="1/2to1/3 1/3to2/3 2/3to2/2 2/2to2/1 2/1to2/0 2/0to1/0 1/0to1/1 1/1to1/2 1/2to1/3"/>
        <stop busStop="busstop1" duration="20"/>
        <stop busStop="busstop5" duration="20"/>
        <stop busStop="busstop3" duration="20"/>
        <stop busStop="busstop6" duration="20"/>
    </vehicle>

 <vehicle id="2_11" type="BUS" depart="3300" color="1,1,0">
        <route edges="1/2to1/3 1/3to2/3 2/3to2/2 2/2to2/1 2/1to2/0 2/0to1/0 1/0to1/1 1/1to1/2 1/2to1/3"/>
        <stop busStop="busstop1" duration="20"/>
        <stop busStop="busstop5" duration="20"/>
        <stop busStop="busstop3" duration="20"/>
        <stop busStop="busstop6" duration="20"/>
    </vehicle>



   <vehicle id="3_0" type="BUS" depart="0" color="1,1,0">
        <route edges="0/2to1/2 1/2to2/2 2/2to3/2 3/2to3/1 3/1to2/1 2/1to1/1 1/1to0/1 0/1to0/2 0/2to1/2"/>
        <stop busStop="busstop7" duration="20"/>
        <stop busStop="busstop2" duration="20"/>
        <stop busStop="busstop8" duration="20"/>
        <stop busStop="busstop4" duration="20"/>
    </vehicle>

<vehicle id="3_1" type="BUS" depart="300" color="1,1,0">
        <route edges="0/2to1/2 1/2to2/2 2/2to3/2 3/2to3/1 3/1to2/1 2/1to1/1 1/1to0/1 0/1to0/2 0/2to1/2"/>
        <stop busStop="busstop7" duration="20"/>
        <stop busStop="busstop2" duration="20"/>
        <stop busStop="busstop8" duration="20"/>
        <stop busStop="busstop4" duration="20"/>
    </vehicle>


<vehicle id="3_2" type="BUS" depart="600" color="1,1,0">
        <route edges="0/2to1/2 1/2to2/2 2/2to3/2 3/2to3/1 3/1to2/1 2/1to1/1 1/1to0/1 0/1to0/2 0/2to1/2"/>
        <stop busStop="busstop7" duration="20"/>
        <stop busStop="busstop2" duration="20"/>
        <stop busStop="busstop8" duration="20"/>
        <stop busStop="busstop4" duration="20"/>
    </vehicle>


<vehicle id="3_3" type="BUS" depart="900" color="1,1,0">
        <route edges="0/2to1/2 1/2to2/2 2/2to3/2 3/2to3/1 3/1to2/1 2/1to1/1 1/1to0/1 0/1to0/2 0/2to1/2"/>
        <stop busStop="busstop7" duration="20"/>
        <stop busStop="busstop2" duration="20"/>
        <stop busStop="busstop8" duration="20"/>
        <stop busStop="busstop4" duration="20"/>
    </vehicle>


<vehicle id="3_4" type="BUS" depart="1200" color="1,1,0">
        <route edges="0/2to1/2 1/2to2/2 2/2to3/2 3/2to3/1 3/1to2/1 2/1to1/1 1/1to0/1 0/1to0/2 0/2to1/2"/>
        <stop busStop="busstop7" duration="20"/>
        <stop busStop="busstop2" duration="20"/>
        <stop busStop="busstop8" duration="20"/>
        <stop busStop="busstop4" duration="20"/>
    </vehicle>



<vehicle id="3_5" type="BUS" depart="1500" color="1,1,0">
        <route edges="0/2to1/2 1/2to2/2 2/2to3/2 3/2to3/1 3/1to2/1 2/1to1/1 1/1to0/1 0/1to0/2 0/2to1/2"/>
        <stop busStop="busstop7" duration="20"/>
        <stop busStop="busstop2" duration="20"/>
        <stop busStop="busstop8" duration="20"/>
        <stop busStop="busstop4" duration="20"/>
    </vehicle>


<vehicle id="3_6" type="BUS" depart="1800" color="1,1,0">
        <route edges="0/2to1/2 1/2to2/2 2/2to3/2 3/2to3/1 3/1to2/1 2/1to1/1 1/1to0/1 0/1to0/2 0/2to1/2"/>
        <stop busStop="busstop7" duration="20"/>
        <stop busStop="busstop2" duration="20"/>
        <stop busStop="busstop8" duration="20"/>
        <stop busStop="busstop4" duration="20"/>
    </vehicle>


<vehicle id="3_7" type="BUS" depart="2100" color="1,1,0">
        <route edges="0/2to1/2 1/2to2/2 2/2to3/2 3/2to3/1 3/1to2/1 2/1to1/1 1/1to0/1 0/1to0/2 0/2to1/2"/>
        <stop busStop="busstop7" duration="20"/>
        <stop busStop="busstop2" duration="20"/>
        <stop busStop="busstop8" duration="20"/>
        <stop busStop="busstop4" duration="20"/>
    </vehicle>



<vehicle id="3_8" type="BUS" depart="2400" color="1,1,0">
        <route edges="0/2to1/2 1/2to2/2 2/2to3/2 3/2to3/1 3/1to2/1 2/1to1/1 1/1to0/1 0/1to0/2 0/2to1/2"/>
        <stop busStop="busstop7" duration="20"/>
        <stop busStop="busstop2" duration="20"/>
        <stop busStop="busstop8" duration="20"/>
        <stop busStop="busstop4" duration="20"/>
    </vehicle>

<vehicle id="3_9" type="BUS" depart="2700" color="1,1,0">
        <route edges="0/2to1/2 1/2to2/2 2/2to3/2 3/2to3/1 3/1to2/1 2/1to1/1 1/1to0/1 0/1to0/2 0/2to1/2"/>
        <stop busStop="busstop7" duration="20"/>
        <stop busStop="busstop2" duration="20"/>
        <stop busStop="busstop8" duration="20"/>
        <stop busStop="busstop4" duration="20"/>
    </vehicle>



<vehicle id="3_10" type="BUS" depart="3000" color="1,1,0">
        <route edges="0/2to1/2 1/2to2/2 2/2to3/2 3/2to3/1 3/1to2/1 2/1to1/1 1/1to0/1 0/1to0/2 0/2to1/2"/>
        <stop busStop="busstop7" duration="20"/>
        <stop busStop="busstop2" duration="20"/>
        <stop busStop="busstop8" duration="20"/>
        <stop busStop="busstop4" duration="20"/>
    </vehicle>

<vehicle id="3_11" type="BUS" depart="3300" color="1,1,0">
        <route edges="0/2to1/2 1/2to2/2 2/2to3/2 3/2to3/1 3/1to2/1 2/1to1/1 1/1to0/1 0/1to0/2 0/2to1/2"/>
        <stop busStop="busstop7" duration="20"/>
        <stop busStop="busstop2" duration="20"/>
        <stop busStop="busstop8" duration="20"/>
        <stop busStop="busstop4" duration="20"/>
    </vehicle>



<sumo-detectors>
   <e1Detector id="1si_0" lane="1/2to0/2_0" pos="200" freq="1" file="detector.xml"/>
   <e1Detector id="1si_1" lane="0/2to1/2_0" pos="270" freq="1" file="detector.xml"/>

   <e1Detector id="2si_0" lane="1/1to0/1_0" pos="200" freq="1" file="detector.xml"/>
   <e1Detector id="2si_1" lane="0/1to1/1_0" pos="270" freq="1" file="detector.xml"/>

   <e1Detector id="3si_0" lane="1/1to1/0_0" pos="250" freq="1" file="detector.xml"/>
   <e1Detector id="3si_1" lane="1/0to1/1_0" pos="240" freq="1" file="detector.xml"/>

   <e1Detector id="4si_0" lane="2/1to2/0_0" pos="250" freq="1" file="detector.xml"/>
   <e1Detector id="4si_1" lane="2/0to2/1_0" pos="240" freq="1" file="detector.xml"/>

   <e1Detector id="5si_0" lane="3/1to2/1_0" pos="260" freq="1" file="detector.xml"/>
   <e1Detector id="5si_1" lane="2/1to3/1_0" pos="230" freq="1" file="detector.xml"/>

   <e1Detector id="6si_0" lane="3/2to2/2_0" pos="260" freq="1" file="detector.xml"/>
   <e1Detector id="6si_1" lane="2/2to3/2_0" pos="230" freq="1" file="detector.xml"/>

   <e1Detector id="7si_0" lane="2/2to2/3_0" pos="130" freq="1" file="detector.xml"/>
   <e1Detector id="7si_1" lane="2/3to2/2_0" pos="360" freq="1" file="detector.xml"/>

   <e1Detector id="8si_0" lane="1/2to1/3_0" pos="130" freq="1" file="detector.xml"/>
   <e1Detector id="8si_1" lane="1/3to1/2_0" pos="360" freq="1" file="detector.xml"/>
   </sumo-detectors>

	<edgeData id="dump_15" freq="15" file="aggregated_15_edge.xml" begin="0" end="3600"/>
	<edgeData id="dump_60" freq="60" file="aggregated_60_edge.xml" begin="0" end="3600"/>
	<edgeData id="dump_300" freq="300" file="aggregated_300_edge.xml" begin="0" end="3600"/>
	<edgeData id="dump_900" freq="300" file="aggregated_900_edge.xml" begin="0" end="3600"/>

	<laneData id="dump_15" freq="15" file="aggregated_15_lane.xml" begin="0" end="3600"/>
	<laneData id="dump_60" freq="60" file="aggregated_60_lane.xml" begin="0" end="3600"/>
	<laneData id="dump_300" freq="300" file="aggregated_300_lane.xml" begin="0" end="3600"/>
	<laneData id="dump_900" freq="300" file="aggregated_900_lane.xml" begin="0" end="3600"/>


        <laneData id="hbefa_heyj" type="hbefa" freq="5" file="heyj_hebef.xml"/>

</additional>
