<?xml version="1.0"?>

<!-- generated on 02/22/12 13:48:55 by SUMO duarouter Version 0.13.1
<?xml version="1.0" encoding="iso-8859-1"?>

<configuration xmlns:xsi="http://www.w3.org/2001/XMLSchema-instance" xsi:noNamespaceSchemaLocation="http://sumo.sf.net/xsd/duarouterConfiguration.xsd">

    <input>
        <net-file value="heyj.net.xml"/>
        <route-files value="heyj.tmp.rou.xml"/>
    </input>

    <output>
        <output-file value="heyj.rou.xml"/>
    </output>

    <processing>
        <ignore-errors value="true"/>
        <remove-loops value="true"/>
        <repair value="true"/>
    </processing>

</configuration>
-->

<routes xmlns:xsi="http://www.w3.org/2001/XMLSchema-instance" xsi:noNamespaceSchemaLocation="http://sumo.sf.net/xsd/routes_file.xsd">
    <vType id="default" length="5.00" maxSpeed="90.00">
        <carFollowing-Krauss accel="4.00" decel="8.00" sigma="0.00"/>
    </vType>
    <vehicle id="h14c1:1" type="default" depart="0.00" departPos="121.14" departSpeed="0.00" arrivalPos="31.30" arrivalSpeed="0.00" color="1.00,0.00,0.00">
        <route edges="0/3to0/2 0/2to0/1 0/1to1/1 1/1to2/1 2/1to3/1"/>
    </vehicle>
    <vehicle id="h1012c1:1" type="default" depart="0.00" departPos="132.73" departSpeed="0.00" arrivalPos="378.29" arrivalSpeed="0.00" color="1.00,0.00,0.00">
        <route edges="2/3to2/2 2/2to3/2"/>
    </vehicle>
    <vehicle id="h1029c1:1" type="default" depart="0.00" departPos="134.25" departSpeed="0.00" arrivalPos="243.53" arrivalSpeed="0.00" color="1.00,0.00,0.00">
        <route edges="2/3to2/2 2/2to1/2 1/2to0/2 0/2to0/1 0/1to0/0 0/0to1/0"/>
    </vehicle>
    <vehicle id="h1035c1:1" type="default" depart="0.00" departPos="32.64" departSpeed="0.00" arrivalPos="47.02" arrivalSpeed="0.00" color="1.00,0.00,0.00">
        <route edges="2/3to2/2 2/2to2/1 2/1to3/1 3/1to3/0"/>
    </vehicle>
    <vehicle id="h1038c1:1" type="default" depart="0.00" departPos="153.85" departSpeed="0.00" arrivalPos="359.56" arrivalSpeed="0.00" color="1.00,0.00,0.00">
        <route edges="2/3to2/2 2/2to1/2 1/2to0/2 0/2to0/3 0/3to1/3"/>
    </vehicle>
    <vehicle id="h1040c1:1" type="default" depart="0.00" departPos="305.19" departSpeed="0.00" arrivalPos="305.19" arrivalSpeed="0.00" color="1.00,0.00,0.00">
        <route edges="1/3to2/3 2/3to2/2"/>
    </vehicle>
    <vehicle id="h1054c1:1" type="default" depart="0.00" departPos="350.05" departSpeed="0.00" arrivalPos="20.03" arrivalSpeed="0.00" color="1.00,0.00,0.00">
        <route edges="2/3to2/2 2/2to1/2 1/2to1/1 1/1to0/1"/>
    </vehicle>
    <vehicle id="h1070c1:1" type="default" depart="0.00" departPos="113.19" departSpeed="0.00" arrivalPos="135.71" arrivalSpeed="0.00" color="1.00,0.00,0.00">
        <route edges="2/2to2/3 2/3to1/3 1/3to1/2"/>
    </vehicle>
    <vehicle id="h1071c1:1" type="default" depart="0.00" departPos="9.94" departSpeed="0.00" arrivalPos="276.59" arrivalSpeed="0.00" color="1.00,0.00,0.00">
        <route edges="2/3to2/2 2/2to2/1 2/1to2/0"/>
    </vehicle>
    <vehicle id="h1073c1:1" type="default" depart="0.00" departPos="443.95" departSpeed="0.00" arrivalPos="397.77" arrivalSpeed="0.00" color="1.00,0.00,0.00">
        <route edges="2/3to2/2 2/2to3/2"/>
    </vehicle>
    <vehicle id="h1078c1:1" type="default" depart="0.00" departPos="429.42" departSpeed="0.00" arrivalPos="63.36" arrivalSpeed="0.00" color="1.00,0.00,0.00">
        <route edges="2/2to2/3 2/3to1/3 1/3to1/2 1/2to0/2"/>
    </vehicle>
    <vehicle id="h107c1:1" type="default" depart="0.00" departPos="480.29" departSpeed="0.00" arrivalPos="391.38" arrivalSpeed="0.00" color="1.00,0.00,0.00">
        <route edges="0/3to0/2 0/2to0/1"/>
    </vehicle>
    <vehicle id="h1081c1:1" type="default" depart="0.00" departPos="267.97" departSpeed="0.00" arrivalPos="267.97" arrivalSpeed="0.00" color="1.00,0.00,0.00">
        <route edges="1/2to2/2 2/2to2/3"/>
    </vehicle>
    <vehicle id="h1083c1:1" type="default" depart="0.00" departPos="240.09" departSpeed="0.00" arrivalPos="270.84" arrivalSpeed="0.00" color="1.00,0.00,0.00">
        <route edges="2/3to2/2 2/2to3/2"/>
    </vehicle>
    <vehicle id="h1103c1:1" type="default" depart="0.00" departPos="393.21" departSpeed="0.00" arrivalPos="239.70" arrivalSpeed="0.00" color="1.00,0.00,0.00">
        <route edges="2/2to2/3 2/3to1/3 1/3to1/2 1/2to1/1 1/1to0/1"/>
    </vehicle>
    <vehicle id="h1118c1:1" type="default" depart="0.00" departPos="275.43" departSpeed="0.00" arrivalPos="474.11" arrivalSpeed="0.00" color="1.00,0.00,0.00">
        <route edges="2/2to2/3 2/3to1/3 1/3to1/2 1/2to1/1 1/1to0/1"/>
    </vehicle>
    <vehicle id="h1121c1:1" type="default" depart="0.00" departPos="461.18" departSpeed="0.00" arrivalPos="461.18" arrivalSpeed="0.00" color="1.00,0.00,0.00">
        <route edges="1/1to2/1 2/1to2/0"/>
    </vehicle>
    <vehicle id="h112c1:1" type="default" depart="0.00" departPos="319.04" departSpeed="0.00" arrivalPos="410.61" arrivalSpeed="0.00" color="1.00,0.00,0.00">
        <route edges="0/3to0/2 0/2to0/1 0/1to1/1 1/1to1/0 1/0to2/0 2/0to3/0"/>
    </vehicle>
    <vehicle id="h1171c1:1" type="default" depart="0.00" departPos="41.05" departSpeed="0.00" arrivalPos="376.09" arrivalSpeed="0.00" color="1.00,0.00,0.00">
        <route edges="2/1to2/0 2/0to1/0 1/0to1/1 1/1to0/1 0/1to0/2"/>
    </vehicle>
    <vehicle id="h1178c1:1" type="default" depart="0.00" departPos="87.45" departSpeed="0.00" arrivalPos="150.64" arrivalSpeed="0.00" color="1.00,0.00,0.00">
        <route edges="2/0to2/1 2/1to3/1 3/1to3/0"/>
    </vehicle>
    <vehicle id="h1179c1:1" type="default" depart="0.00" departPos="45.01" departSpeed="0.00" arrivalPos="31.85" arrivalSpeed="0.00" color="1.00,0.00,0.00">
        <route edges="2/0to2/1 2/1to1/1 1/1to0/1 0/1to0/2 0/2to0/3"/>
    </vehicle>
    <vehicle id="h117c1:1" type="default" depart="0.00" departPos="210.00" departSpeed="0.00" arrivalPos="210.00" arrivalSpeed="0.00" color="1.00,0.00,0.00">
        <route edges="0/1to0/2 0/2to0/3"/>
    </vehicle>
    <vehicle id="h1185c1:1" type="default" depart="0.00" departPos="249.24" departSpeed="0.00" arrivalPos="249.24" arrivalSpeed="0.00" color="1.00,0.00,0.00">
        <route edges="1/0to2/0 2/0to2/1"/>
    </vehicle>
    <vehicle id="h1186c1:1" type="default" depart="0.00" departPos="486.86" departSpeed="0.00" arrivalPos="191.43" arrivalSpeed="0.00" color="1.00,0.00,0.00">
        <route edges="2/0to2/1 2/1to1/1 1/1to1/2 1/2to1/3 1/3to2/3"/>
    </vehicle>
    <vehicle id="h1189c1:1" type="default" depart="0.00" departPos="131.71" departSpeed="0.00" arrivalPos="300.45" arrivalSpeed="0.00" color="1.00,0.00,0.00">
        <route edges="2/0to2/1 2/1to2/2 2/2to3/2"/>
    </vehicle>
    <vehicle id="h1199c1:1" type="default" depart="0.00" departPos="13.27" departSpeed="0.00" arrivalPos="69.22" arrivalSpeed="0.00" color="1.00,0.00,0.00">
        <route edges="2/0to2/1 2/1to1/1 1/1to1/0 1/0to0/0"/>
    </vehicle>
    <vehicle id="h1202c1:1" type="default" depart="0.00" departPos="35.78" departSpeed="0.00" arrivalPos="35.78" arrivalSpeed="0.00" color="1.00,0.00,0.00">
        <route edges="1/0to2/0 2/0to2/1"/>
    </vehicle>
    <vehicle id="h1203c1:1" type="default" depart="0.00" departPos="443.44" departSpeed="0.00" arrivalPos="149.74" arrivalSpeed="0.00" color="1.00,0.00,0.00">
        <route edges="2/0to2/1 2/1to2/2 2/2to3/2 3/2to3/1"/>
    </vehicle>
    <vehicle id="h1204c1:1" type="default" depart="0.00" departPos="363.47" departSpeed="0.00" arrivalPos="475.40" arrivalSpeed="0.00" color="1.00,0.00,0.00">
        <route edges="2/0to2/1 2/1to2/2 2/2to2/3"/>
    </vehicle>
    <vehicle id="h1206c1:1" type="default" depart="0.00" departPos="255.36" departSpeed="0.00" arrivalPos="255.36" arrivalSpeed="0.00" color="1.00,0.00,0.00">
        <route edges="1/0to2/0 2/0to2/1"/>
    </vehicle>
    <vehicle id="h1207c1:1" type="default" depart="0.00" departPos="37.62" departSpeed="0.00" arrivalPos="128.13" arrivalSpeed="0.00" color="1.00,0.00,0.00">
        <route edges="2/0to2/1 2/1to3/1 3/1to3/2"/>
    </vehicle>
    <vehicle id="h1228c1:1" type="default" depart="0.00" departPos="464.12" departSpeed="0.00" arrivalPos="137.22" arrivalSpeed="0.00" color="1.00,0.00,0.00">
        <route edges="2/0to2/1 2/1to1/1 1/1to0/1"/>
    </vehicle>
    <vehicle id="h1234c1:1" type="default" depart="0.00" departPos="211.23" departSpeed="0.00" arrivalPos="71.96" arrivalSpeed="0.00" color="1.00,0.00,0.00">
        <route edges="3/0to2/0 2/0to2/1 2/1to3/1"/>
    </vehicle>
    <vehicle id="h1236c1:1" type="default" depart="0.00" departPos="344.54" departSpeed="0.00" arrivalPos="109.94" arrivalSpeed="0.00" color="1.00,0.00,0.00">
        <route edges="3/0to2/0 2/0to1/0 1/0to1/1 1/1to1/2 1/2to1/3"/>
    </vehicle>
    <vehicle id="h1241c1:1" type="default" depart="0.00" departPos="251.39" departSpeed="0.00" arrivalPos="75.04" arrivalSpeed="0.00" color="1.00,0.00,0.00">
        <route edges="3/0to2/0 2/0to2/1 2/1to2/2 2/2to3/2"/>
    </vehicle>
    <vehicle id="h1247c1:1" type="default" depart="0.00" departPos="243.52" departSpeed="0.00" arrivalPos="192.06" arrivalSpeed="0.00" color="1.00,0.00,0.00">
        <route edges="3/0to2/0 2/0to1/0 1/0to1/1 1/1to0/1 0/1to0/2 0/2to0/3 0/3to1/3"/>
    </vehicle>
    <vehicle id="h1254c1:1" type="default" depart="0.00" departPos="101.52" departSpeed="0.00" arrivalPos="302.96" arrivalSpeed="0.00" color="1.00,0.00,0.00">
        <route edges="3/0to2/0 2/0to1/0 1/0to1/1"/>
    </vehicle>
   <vehicle id="h1263c1:1" type="default" depart="0.00" departPos="55.11" departSpeed="0.00" arrivalPos="270.43" arrivalSpeed="0.00" color="1.00,0.00,0.00">
        <route edges="3/0to2/0 2/0to1/0 1/0to1/1 1/1to1/2 1/2to0/2"/>
    </vehicle>
    <vehicle id="h1289c1:1" type="default" depart="0.00" departPos="436.53" departSpeed="0.00" arrivalPos="372.29" arrivalSpeed="0.00" color="1.00,0.00,0.00">
        <route edges="3/0to2/0 2/0to1/0 1/0to1/1 1/1to1/2 1/2to1/3 1/3to0/3"/>
    </vehicle>
    <vehicle id="h1303c1:1" type="default" depart="0.00" departPos="220.51" departSpeed="0.00" arrivalPos="99.61" arrivalSpeed="0.00" color="1.00,0.00,0.00">
        <route edges="3/0to2/0 2/0to2/1 2/1to2/2 2/2to2/3 2/3to1/3"/>
    </vehicle>
    <vehicle id="h1311c1:1" type="default" depart="0.00" departPos="393.72" departSpeed="0.00" arrivalPos="449.72" arrivalSpeed="0.00" color="1.00,0.00,0.00">
        <route edges="3/0to2/0 2/0to1/0 1/0to0/0"/>
    </vehicle>
    <vehicle id="h1314c1:1" type="default" depart="0.00" departPos="159.08" departSpeed="0.00" arrivalPos="414.76" arrivalSpeed="0.00" color="1.00,0.00,0.00">
        <route edges="3/0to2/0 2/0to1/0 1/0to1/1 1/1to1/2 1/2to1/3"/>
    </vehicle>
    <vehicle id="h1315c1:1" type="default" depart="0.00" departPos="357.40" departSpeed="0.00" arrivalPos="88.11" arrivalSpeed="0.00" color="1.00,0.00,0.00">
        <route edges="3/0to2/0 2/0to2/1"/>
    </vehicle>
    <vehicle id="h1317c1:1" type="default" depart="0.00" departPos="198.72" departSpeed="0.00" arrivalPos="351.36" arrivalSpeed="0.00" color="1.00,0.00,0.00">
        <route edges="2/0to3/0 3/0to3/1"/>
    </vehicle>
    <vehicle id="h1320c1:1" type="default" depart="0.00" departPos="99.50" departSpeed="0.00" arrivalPos="346.47" arrivalSpeed="0.00" color="1.00,0.00,0.00">
        <route edges="2/0to3/0 3/0to3/1 3/1to3/2 3/2to3/3 3/3to2/3"/>
    </vehicle>
    <vehicle id="h1322c1:1" type="default" depart="0.00" departPos="88.06" departSpeed="0.00" arrivalPos="88.06" arrivalSpeed="0.00" color="1.00,0.00,0.00">
        <route edges="1/0to2/0 2/0to3/0"/>
    </vehicle>
    <vehicle id="h1324c1:1" type="default" depart="0.00" departPos="472.13" departSpeed="0.00" arrivalPos="292.58" arrivalSpeed="0.00" color="1.00,0.00,0.00">
        <route edges="3/0to2/0 2/0to1/0 1/0to0/0 0/0to0/1"/>
    </vehicle>
    <vehicle id="h1328c1:1" type="default" depart="0.00" departPos="274.25" departSpeed="0.00" arrivalPos="342.72" arrivalSpeed="0.00" color="1.00,0.00,0.00">
        <route edges="3/0to2/0 2/0to1/0 1/0to0/0"/>
    </vehicle>
    <vehicle id="h1331c1:1" type="default" depart="0.00" departPos="56.69" departSpeed="0.00" arrivalPos="56.69" arrivalSpeed="0.00" color="1.00,0.00,0.00">
        <route edges="1/0to2/0 2/0to3/0"/>
    </vehicle>
    <vehicle id="h1334c1:1" type="default" depart="0.00" departPos="133.53" departSpeed="0.00" arrivalPos="452.09" arrivalSpeed="0.00" color="1.00,0.00,0.00">
        <route edges="3/0to2/0 2/0to2/1"/>
    </vehicle>
    <vehicle id="h1339c1:1" type="default" depart="0.00" departPos="291.97" departSpeed="0.00" arrivalPos="49.70" arrivalSpeed="0.00" color="1.00,0.00,0.00">
        <route edges="3/0to2/0 2/0to1/0 1/0to1/1 1/1to0/1 0/1to0/2 0/2to1/2"/>
    </vehicle>
    <vehicle id="h1340c1:1" type="default" depart="0.00" departPos="332.93" departSpeed="0.00" arrivalPos="448.75" arrivalSpeed="0.00" color="1.00,0.00,0.00">
        <route edges="2/0to3/0 3/0to3/1 3/1to3/2 3/2to2/2"/>
    </vehicle>
    <vehicle id="h1349c1:1" type="default" depart="0.00" departPos="420.36" departSpeed="0.00" arrivalPos="294.76" arrivalSpeed="0.00" color="1.00,0.00,0.00">
        <route edges="3/0to2/0 2/0to2/1 2/1to3/1"/>
    </vehicle>
    <vehicle id="h1357c1:1" type="default" depart="0.00" departPos="62.03" departSpeed="0.00" arrivalPos="317.50" arrivalSpeed="0.00" color="1.00,0.00,0.00">
        <route edges="3/0to2/0 2/0to1/0 1/0to1/1 1/1to0/1 0/1to0/2 0/2to1/2 1/2to2/2 2/2to3/2 3/2to3/1"/>
    </vehicle>
    <vehicle id="h1358c1:1" type="default" depart="0.00" departPos="279.04" departSpeed="0.00" arrivalPos="250.90" arrivalSpeed="0.00" color="1.00,0.00,0.00">
        <route edges="3/0to2/0 2/0to1/0 1/0to1/1 1/1to1/2 1/2to0/2"/>
    </vehicle>
    <vehicle id="h1367c1:1" type="default" depart="0.00" departPos="279.26" departSpeed="0.00" arrivalPos="76.46" arrivalSpeed="0.00" color="1.00,0.00,0.00">
        <route edges="3/1to2/1 2/1to2/2 2/2to2/3 2/3to3/3 3/3to3/2"/>
    </vehicle>
    <vehicle id="h1368c1:1" type="default" depart="0.00" departPos="419.25" departSpeed="0.00" arrivalPos="373.05" arrivalSpeed="0.00" color="1.00,0.00,0.00">
        <route edges="3/1to2/1 2/1to1/1 1/1to1/2 1/2to1/3"/>
    </vehicle>
 <!--    <vehicle id="h1369c1:1" type="default" depart="0.00" departPos="114.54" departSpeed="0.00" arrivalPos="370.53" arrivalSpeed="0.00" color="1.00,0.00,0.00">
        <route edges="3/1to2/1 2/1to2/2 2/2to2/3 2/3to3/3"/>
    </vehicle>
    <vehicle id="h1391c1:1" type="default" depart="0.00" departPos="466.08" departSpeed="0.00" arrivalPos="237.14" arrivalSpeed="0.00" color="1.00,0.00,0.00">
        <route edges="3/1to2/1 2/1to2/2 2/2to2/3 2/3to3/3"/>
    </vehicle>
    <vehicle id="h1396c1:1" type="default" depart="0.00" departPos="8.66" departSpeed="0.00" arrivalPos="400.91" arrivalSpeed="0.00" color="1.00,0.00,0.00">
        <route edges="3/1to2/1 2/1to2/2 2/2to2/3 2/3to3/3 3/3to3/2"/>
    </vehicle>
    <vehicle id="h1397c1:1" type="default" depart="0.00" departPos="181.90" departSpeed="0.00" arrivalPos="35.51" arrivalSpeed="0.00" color="1.00,0.00,0.00">
        <route edges="3/1to2/1 2/1to1/1 1/1to0/1 0/1to0/2"/>
    </vehicle>
    <vehicle id="h1414c1:1" type="default" depart="0.00" departPos="191.15" departSpeed="0.00" arrivalPos="326.61" arrivalSpeed="0.00" color="1.00,0.00,0.00">
        <route edges="3/1to2/1 2/1to1/1 1/1to0/1 0/1to0/2 0/2to1/2"/>
    </vehicle>
    <vehicle id="h1418c1:1" type="default" depart="0.00" departPos="239.27" departSpeed="0.00" arrivalPos="290.21" arrivalSpeed="0.00" color="1.00,0.00,0.00">
        <route edges="3/1to2/1 2/1to1/1 1/1to0/1"/>
    </vehicle>
    <vehicle id="h1423c1:1" type="default" depart="0.00" departPos="264.18" departSpeed="0.00" arrivalPos="416.10" arrivalSpeed="0.00" color="1.00,0.00,0.00">
        <route edges="3/1to2/1 2/1to1/1 1/1to0/1"/>
    </vehicle>
    <vehicle id="h1431c1:1" type="default" depart="0.00" departPos="117.76" departSpeed="0.00" arrivalPos="66.75" arrivalSpeed="0.00" color="1.00,0.00,0.00">
        <route edges="2/1to3/1 3/1to3/2 3/2to2/2"/>
    </vehicle>
    <vehicle id="h1435c1:1" type="default" depart="0.00" departPos="180.85" departSpeed="0.00" arrivalPos="16.77" arrivalSpeed="0.00" color="1.00,0.00,0.00">
        <route edges="2/1to3/1 3/1to3/2 3/2to3/3 3/3to2/3"/>
    </vehicle>
    <vehicle id="h1439c1:1" type="default" depart="0.00" departPos="454.45" departSpeed="0.00" arrivalPos="91.01" arrivalSpeed="0.00" color="1.00,0.00,0.00">
        <route edges="3/1to2/1 2/1to1/1 1/1to0/1 0/1to0/0"/>
    </vehicle>
    <vehicle id="h1447c1:1" type="default" depart="0.00" departPos="83.54" departSpeed="0.00" arrivalPos="83.54" arrivalSpeed="0.00" color="1.00,0.00,0.00">
        <route edges="1/1to2/1 2/1to3/1"/>
    </vehicle>
    <vehicle id="h1452c1:1" type="default" depart="0.00" departPos="171.65" departSpeed="0.00" arrivalPos="408.82" arrivalSpeed="0.00" color="1.00,0.00,0.00">
        <route edges="3/1to2/1 2/1to1/1 1/1to1/0"/>
    </vehicle>
    <vehicle id="h1455c1:1" type="default" depart="0.00" departPos="63.78" departSpeed="0.00" arrivalPos="63.78" arrivalSpeed="0.00" color="1.00,0.00,0.00">
        <route edges="2/0to2/1 2/1to3/1"/>
    </vehicle>
    <vehicle id="h1458c1:1" type="default" depart="0.00" departPos="411.26" departSpeed="0.00" arrivalPos="134.64" arrivalSpeed="0.00" color="1.00,0.00,0.00">
        <route edges="3/1to2/1 2/1to2/2 2/2to3/2"/>
    </vehicle>
    <vehicle id="h1460c1:1" type="default" depart="0.00" departPos="40.04" departSpeed="0.00" arrivalPos="82.04" arrivalSpeed="0.00" color="1.00,0.00,0.00">
        <route edges="3/1to2/1 2/1to1/1 1/1to0/1"/>
    </vehicle>
    <vehicle id="h1466c1:1" type="default" depart="0.00" departPos="270.39" departSpeed="0.00" arrivalPos="121.69" arrivalSpeed="0.00" color="1.00,0.00,0.00">
        <route edges="2/1to3/1 3/1to3/0 3/0to2/0"/>
    </vehicle>
    <vehicle id="h1470c1:1" type="default" depart="0.00" departPos="132.00" departSpeed="0.00" arrivalPos="374.22" arrivalSpeed="0.00" color="1.00,0.00,0.00">
        <route edges="2/1to3/1 3/1to3/0 3/0to2/0"/>
    </vehicle>
    <vehicle id="h1484c1:1" type="default" depart="0.00" departPos="245.07" departSpeed="0.00" arrivalPos="270.91" arrivalSpeed="0.00" color="1.00,0.00,0.00">
        <route edges="3/1to2/1 2/1to2/2 2/2to2/3 2/3to3/3"/>
    </vehicle>
    <vehicle id="h1485c1:1" type="default" depart="0.00" departPos="232.27" departSpeed="0.00" arrivalPos="352.20" arrivalSpeed="0.00" color="1.00,0.00,0.00">
        <route edges="3/1to2/1 2/1to2/2 2/2to2/3 2/3to3/3"/>
    </vehicle>
    <vehicle id="h1489c1:1" type="default" depart="0.00" departPos="322.85" departSpeed="0.00" arrivalPos="319.18" arrivalSpeed="0.00" color="1.00,0.00,0.00">
        <route edges="3/2to2/2 2/2to1/2 1/2to0/2 0/2to0/3"/>
    </vehicle>
    <vehicle id="h1502c1:1" type="default" depart="0.00" departPos="429.99" departSpeed="0.00" arrivalPos="7.69" arrivalSpeed="0.00" color="1.00,0.00,0.00">
        <route edges="2/2to3/2 3/2to3/1"/>
    </vehicle>
    <vehicle id="h1507c1:1" type="default" depart="0.00" departPos="160.19" departSpeed="0.00" arrivalPos="482.97" arrivalSpeed="0.00" color="1.00,0.00,0.00">
        <route edges="3/2to2/2 2/2to1/2 1/2to1/1 1/1to1/0 1/0to0/0"/>
    </vehicle>
    <vehicle id="h151c1:1" type="default" depart="0.00" departPos="76.73" departSpeed="0.00" arrivalPos="251.21" arrivalSpeed="0.00" color="1.00,0.00,0.00">
        <route edges="0/0to0/1 0/1to0/2 0/2to1/2 1/2to2/2 2/2to3/2"/>
    </vehicle>
    <vehicle id="h152c1:1" type="default" depart="0.00" departPos="246.61" departSpeed="0.00" arrivalPos="335.74" arrivalSpeed="0.00" color="1.00,0.00,0.00">
        <route edges="0/0to0/1 0/1to0/2 0/2to1/2 1/2to2/2 2/2to3/2"/>
    </vehicle>
    <vehicle id="h1539c1:1" type="default" depart="0.00" departPos="89.30" departSpeed="0.00" arrivalPos="13.22" arrivalSpeed="0.00" color="1.00,0.00,0.00">
        <route edges="3/2to2/2 2/2to1/2 1/2to0/2 0/2to0/1 0/1to0/0"/>
    </vehicle>
    <vehicle id="h1542c1:1" type="default" depart="0.00" departPos="205.75" departSpeed="0.00" arrivalPos="174.52" arrivalSpeed="0.00" color="1.00,0.00,0.00">
        <route edges="3/2to2/2 2/2to1/2 1/2to1/3"/>
    </vehicle>
    <vehicle id="h1550c1:1" type="default" depart="0.00" departPos="149.99" departSpeed="0.00" arrivalPos="62.87" arrivalSpeed="0.00" color="1.00,0.00,0.00">
        <route edges="3/2to2/2 2/2to2/3"/>
    </vehicle>
    <vehicle id="h1551c1:1" type="default" depart="0.00" departPos="275.65" departSpeed="0.00" arrivalPos="348.42" arrivalSpeed="0.00" color="1.00,0.00,0.00">
        <route edges="3/2to2/2 2/2to1/2 1/2to0/2 0/2to0/1 0/1to1/1"/>
    </vehicle>
    <vehicle id="h1568c1:1" type="default" depart="0.00" departPos="39.27" departSpeed="0.00" arrivalPos="50.09" arrivalSpeed="0.00" color="1.00,0.00,0.00">
        <route edges="3/2to2/2 2/2to1/2 1/2to0/2 0/2to0/1"/>
    </vehicle>
    <vehicle id="h1570c1:1" type="default" depart="0.00" departPos="201.04" departSpeed="0.00" arrivalPos="339.70" arrivalSpeed="0.00" color="1.00,0.00,0.00">
        <route edges="3/2to2/2 2/2to1/2 1/2to0/2"/>
    </vehicle>
    <vehicle id="h1574c1:1" type="default" depart="0.00" departPos="234.45" departSpeed="0.00" arrivalPos="362.14" arrivalSpeed="0.00" color="1.00,0.00,0.00">
        <route edges="3/2to2/2 2/2to1/2 1/2to1/3 1/3to0/3"/>
    </vehicle>
    <vehicle id="h1577c1:1" type="default" depart="0.00" departPos="325.05" departSpeed="0.00" arrivalPos="91.94" arrivalSpeed="0.00" color="1.00,0.00,0.00">
        <route edges="3/2to2/2 2/2to1/2 1/2to1/1 1/1to2/1 2/1to3/1"/>
    </vehicle>
    <vehicle id="h1580c1:1" type="default" depart="0.00" departPos="434.92" departSpeed="0.00" arrivalPos="317.54" arrivalSpeed="0.00" color="1.00,0.00,0.00">
        <route edges="2/2to3/2 3/2to3/3 3/3to2/3"/>
    </vehicle>
    <vehicle id="h1592c1:1" type="default" depart="0.00" departPos="307.82" departSpeed="0.00" arrivalPos="260.72" arrivalSpeed="0.00" color="1.00,0.00,0.00">
        <route edges="2/2to3/2 3/2to3/1 3/1to3/0 3/0to2/0"/>
    </vehicle>
    <vehicle id="h15c1:1" type="default" depart="0.00" departPos="275.86" departSpeed="0.00" arrivalPos="275.86" arrivalSpeed="0.00" color="1.00,0.00,0.00">
        <route edges="1/3to0/3 0/3to0/2"/>
    </vehicle>
    <vehicle id="h1601c1:1" type="default" depart="0.00" departPos="299.86" departSpeed="0.00" arrivalPos="56.28" arrivalSpeed="0.00" color="1.00,0.00,0.00">
        <route edges="2/2to3/2 3/2to3/3"/>
    </vehicle>
    <vehicle id="h1607c1:1" type="default" depart="0.00" departPos="437.46" departSpeed="0.00" arrivalPos="56.54" arrivalSpeed="0.00" color="1.00,0.00,0.00">
        <route edges="3/2to2/2 2/2to1/2 1/2to0/2"/>
    </vehicle>
    <vehicle id="h1608c1:1" type="default" depart="0.00" departPos="299.29" departSpeed="0.00" arrivalPos="457.22" arrivalSpeed="0.00" color="1.00,0.00,0.00">
        <route edges="3/2to2/2 2/2to2/1 2/1to3/1"/>
    </vehicle>
    <vehicle id="h1609c1:1" type="default" depart="0.00" departPos="27.52" departSpeed="0.00" arrivalPos="323.29" arrivalSpeed="0.00" color="1.00,0.00,0.00">
        <route edges="3/2to2/2 2/2to1/2 1/2to0/2 0/2to0/1"/>
    </vehicle>
    <vehicle id="h1613c1:1" type="default" depart="0.00" departPos="3.49" departSpeed="0.00" arrivalPos="168.44" arrivalSpeed="0.00" color="1.00,0.00,0.00">
        <route edges="2/1to2/2 2/2to2/3 2/3to1/3"/>
    </vehicle>
    <vehicle id="h1617c1:1" type="default" depart="0.00" departPos="325.01" departSpeed="0.00" arrivalPos="103.49" arrivalSpeed="0.00" color="1.00,0.00,0.00">
        <route edges="3/2to2/2 2/2to1/2 1/2to0/2"/>
    </vehicle>
    <vehicle id="h1621c1:1" type="default" depart="0.00" departPos="180.18" departSpeed="0.00" arrivalPos="141.53" arrivalSpeed="0.00" color="1.00,0.00,0.00">
        <route edges="3/3to2/3 2/3to2/2 2/2to3/2"/>
    </vehicle>
    <vehicle id="h1633c1:1" type="default" depart="0.00" departPos="391.52" departSpeed="0.00" arrivalPos="391.52" arrivalSpeed="0.00" color="1.00,0.00,0.00">
        <route edges="3/2to3/3 3/3to2/3"/>
    </vehicle>
    <vehicle id="h1637c1:1" type="default" depart="0.00" departPos="370.99" departSpeed="0.00" arrivalPos="397.36" arrivalSpeed="0.00" color="1.00,0.00,0.00">
        <route edges="3/3to2/3 2/3to1/3 1/3to1/2 1/2to1/1 1/1to1/0"/>
    </vehicle>
    <vehicle id="h1645c1:1" type="default" depart="0.00" departPos="159.48" departSpeed="0.00" arrivalPos="294.19" arrivalSpeed="0.00" color="1.00,0.00,0.00">
        <route edges="3/3to2/3 2/3to1/3 1/3to1/2 1/2to1/1 1/1to1/0 1/0to2/0"/>
    </vehicle>
    <vehicle id="h1650c1:1" type="default" depart="0.00" departPos="132.77" departSpeed="0.00" arrivalPos="357.40" arrivalSpeed="0.00" color="1.00,0.00,0.00">
        <route edges="3/3to2/3 2/3to2/2"/>
    </vehicle>
    <vehicle id="h1651c1:1" type="default" depart="0.00" departPos="372.04" departSpeed="0.00" arrivalPos="436.69" arrivalSpeed="0.00" color="1.00,0.00,0.00">
        <route edges="3/3to2/3 2/3to2/2 2/2to3/2"/>
    </vehicle>
    <vehicle id="h165c1:1" type="default" depart="0.00" departPos="228.07" departSpeed="0.00" arrivalPos="177.31" arrivalSpeed="0.00" color="1.00,0.00,0.00">
        <route edges="0/0to0/1 0/1to1/1 1/1to2/1 2/1to3/1"/>
    </vehicle>
    <vehicle id="h1671c1:1" type="default" depart="0.00" departPos="77.43" departSpeed="0.00" arrivalPos="77.43" arrivalSpeed="0.00" color="1.00,0.00,0.00">
        <route edges="3/2to3/3 3/3to2/3"/>
    </vehicle>
    <vehicle id="h1673c1:1" type="default" depart="0.00" departPos="283.64" departSpeed="0.00" arrivalPos="435.64" arrivalSpeed="0.00" color="1.00,0.00,0.00">
        <route edges="3/3to2/3 2/3to2/2"/>
    </vehicle>
    <vehicle id="h167c1:1" type="default" depart="0.00" departPos="9.40" departSpeed="0.00" arrivalPos="390.88" arrivalSpeed="0.00" color="1.00,0.00,0.00">
        <route edges="0/0to0/1 0/1to0/2 0/2to1/2 1/2to1/3 1/3to2/3"/>
    </vehicle>
    <vehicle id="h1680c1:1" type="default" depart="0.00" departPos="170.86" departSpeed="0.00" arrivalPos="220.13" arrivalSpeed="0.00" color="1.00,0.00,0.00">
        <route edges="3/3to2/3 2/3to1/3 1/3to1/2 1/2to0/2 0/2to0/1 0/1to0/0 0/0to1/0"/>
    </vehicle>
    <vehicle id="h1685c1:1" type="default" depart="0.00" departPos="332.52" departSpeed="0.00" arrivalPos="332.52" arrivalSpeed="0.00" color="1.00,0.00,0.00">
        <route edges="2/2to2/3 2/3to3/3"/>
    </vehicle>
    <vehicle id="h1686c1:1" type="default" depart="0.00" departPos="104.55" departSpeed="0.00" arrivalPos="462.78" arrivalSpeed="0.00" color="1.00,0.00,0.00">
        <route edges="3/3to2/3 2/3to1/3 1/3to1/2 1/2to0/2 0/2to0/1 0/1to0/0"/>
    </vehicle>
    <vehicle id="h1696c1:1" type="default" depart="0.00" departPos="474.61" departSpeed="0.00" arrivalPos="334.70" arrivalSpeed="0.00" color="1.00,0.00,0.00">
        <route edges="2/3to3/3 3/3to3/2 3/2to3/1 3/1to3/0"/>
    </vehicle>
    <vehicle id="h1700c1:1" type="default" depart="0.00" departPos="6.41" departSpeed="0.00" arrivalPos="124.43" arrivalSpeed="0.00" color="1.00,0.00,0.00">
        <route edges="2/3to3/3 3/3to3/2 3/2to3/1 3/1to3/0 3/0to2/0"/>
    </vehicle>
    <vehicle id="h1702c1:1" type="default" depart="0.00" departPos="328.21" departSpeed="0.00" arrivalPos="428.02" arrivalSpeed="0.00" color="1.00,0.00,0.00">
        <route edges="3/3to2/3 2/3to2/2 2/2to2/1 2/1to2/0 2/0to1/0"/>
    </vehicle>
    <vehicle id="h1703c1:1" type="default" depart="0.00" departPos="472.42" departSpeed="0.00" arrivalPos="472.42" arrivalSpeed="0.00" color="1.00,0.00,0.00">
        <route edges="1/3to2/3 2/3to3/3"/>
    </vehicle>
    <vehicle id="h1724c1:1" type="default" depart="0.00" departPos="396.87" departSpeed="0.00" arrivalPos="318.00" arrivalSpeed="0.00" color="1.00,0.00,0.00">
        <route edges="3/3to2/3 2/3to1/3 1/3to0/3"/>
    </vehicle>
    <vehicle id="h172c1:1" type="default" depart="0.00" departPos="455.63" departSpeed="0.00" arrivalPos="16.41" arrivalSpeed="0.00" color="1.00,0.00,0.00">
        <route edges="0/0to0/1 0/1to0/2 0/2to1/2 1/2to2/2 2/2to2/3"/>
    </vehicle>
    <vehicle id="h1730c1:1" type="default" depart="0.00" departPos="296.89" departSpeed="0.00" arrivalPos="253.35" arrivalSpeed="0.00" color="1.00,0.00,0.00">
        <route edges="3/3to2/3 2/3to1/3 1/3to0/3"/>
    </vehicle>
    <vehicle id="h1734c1:1" type="default" depart="0.00" departPos="101.77" departSpeed="0.00" arrivalPos="417.23" arrivalSpeed="0.00" color="1.00,0.00,0.00">
        <route edges="2/3to3/3 3/3to3/2 3/2to3/1 3/1to3/0"/>
    </vehicle>
    <vehicle id="h1736c1:1" type="default" depart="0.00" departPos="27.18" departSpeed="0.00" arrivalPos="321.87" arrivalSpeed="0.00" color="1.00,0.00,0.00">
        <route edges="3/3to2/3 2/3to1/3 1/3to1/2 1/2to0/2 0/2to0/1 0/1to0/0"/>
    </vehicle>
    <vehicle id="h1739c1:1" type="default" depart="0.00" departPos="466.49" departSpeed="0.00" arrivalPos="148.94" arrivalSpeed="0.00" color="1.00,0.00,0.00">
        <route edges="3/3to2/3 2/3to1/3 1/3to1/2 1/2to0/2 0/2to0/1 0/1to0/0"/>
    </vehicle>
    <vehicle id="h173c1:1" type="default" depart="0.00" departPos="59.99" departSpeed="0.00" arrivalPos="381.15" arrivalSpeed="0.00" color="1.00,0.00,0.00">
        <route edges="0/0to0/1 0/1to0/2 0/2to1/2 1/2to2/2 2/2to3/2 3/2to3/3"/>
    </vehicle>
    <vehicle id="h1740c1:1" type="default" depart="0.00" departPos="409.79" departSpeed="0.00" arrivalPos="427.01" arrivalSpeed="0.00" color="1.00,0.00,0.00">
        <route edges="3/3to2/3 2/3to1/3 1/3to1/2"/>
    </vehicle>